* PSpice Model Editor - Version 24.1.0
*$
*BeginSpec
*IF: (.65,100.00E-6) (.7,500.00E-6) (.8,20.000E-3) (1.2000,.2)
*JC:
*RL: (1,100.00E-9) (3,1.0000E-6)
*RB: Vz=5.1000 Iz=49.000E-3 Zz=5.3900
*RR: Trr=0 Ifwd=10.000E-3 Irev=10.000E-3 Rl=100
*EndSpec

*BeginTrace
*IF: 1,0,1.0000E-15,2,1,3,0,0,-1 (27)
*JC: 0,1,.1,10,1,3,0,0,-1 (27)
*RL: 0,0,0,100,1,3,0,0,-1 (27)
*RB: 0,1,100.00E-6,1,1,3,0,0,-1 (27)
*RR: 0,0,-5.0000E-9,20.000E-9,1,3,0,0,-1 (27)
*EndTrace

*BeginParam
*IS=1.0857E-18 (10.000E-21,.1,0)
*N=.78934 (.2,5,0)
*RS=1.9400 (1.0000E-6,100,0)
*IKF=33.659 (0,1.0000E3,0)
*XTI=3 (-100,100,0)
*EG=1.1100 (.1,5.5100,0)
*CJO=185.00E-12 (10.000E-21,1.0000E-3,0)
*M=.35 (.1,10,0)
*VJ=.75 (.3905,10,0)
*FC=.5 (1.0000E-3,10,0)
*ISR=386.39E-9 (10.000E-21,.1,0)
*NR=4.9950 (.5,5,0)
*BV=5.0344 (.1,1.0000E6,0)
*IBV=.153 (1.0000E-9,10,0)
*TT=5.0000E-9 (100.00E-18,1.0000E-3,0)
*EndParam

*DEVICE=ZenerDiode,D

* ZenerDiode D model
* updated using Model Editor release 24.1.0 on 05/14/25 at 19:11
* The Model Editor is a PSpice product.
.MODEL ZenerDiode D
+ IS=1.0857E-18
+ N=.78934
+ RS=1.9400
+ IKF=33.659
+ CJO=185.00E-12
+ M=.35
+ VJ=.75
+ ISR=386.39E-9
+ NR=4.9950
+ BV=5.0344
+ IBV=.153
+ TT=5.0000E-9
*$
